*
* MAIN CELL: Component pathname : root_element
*
   .MODEL BDC_switch_ideal "label 1"="TE" "control"=1
   .MODEL "Waveguide Crossing" "label 1"="TE" "transmission 1"=0.9954054174 "cross talk 1"=0.0001
   + "transmission 2"=1 "cross talk 2"=0 "reflection 1"=0.001
   + "reflection 2"=0 "label 2"="TM" "orthogonal identifier 1"=1
   + "orthogonal identifier 2"=2
   .MODEL "Straight Waveguide" "excess loss temperature sensitivity 2"=0 "label 1"="TE" "orthogonal identifier 1"=1 
   + "loss 1"=0 "number of taps"=64 "dispersion 1"=0 
   + "effective index temperature sensitivity 2"=0 "effective index 2"=1 length=10u 
   + "group index 2"=1 "orthogonal identifier 2"=2 "nominal temperature"=300 
   + "loss 2"=0 "dispersion 2"=0 frequency=193.1T 
   + "digital filter"=0 "run diagnostic"=0 "window function"="rectangular" 
   + "thermal fill factor"=1 "excess loss temperature sensitivity 1"=0 "label 2"="TM" 
   + "thermal effects"=0 "effective index temperature sensitivity 1"=0 "effective index 1"=1 

.subckt HDBE  N$2369 N$2371 N$2373 N$2375 N$2377 N$2379 N$2381 N$2383 N$2385 N$2387 N$2389 N$2391 N$2393 N$2395 N$2397 N$2399 N$2465 N$2467 N$2469 N$2471 N$2473 N$2475 N$2477 N$2479 N$2481 N$2483 N$2485 N$2487 N$2489 N$2491 N$2493 N$2495
   S353 N$2369 N$2370 N$1821 N$1282 BDC_switch_ideal library="Design kits/capstone" sch_x=-62 sch_y=15 sch_r=0 sch_f=false lay_x=0 lay_y=0
   S354 N$2371 N$2372 N$1284 N$1286 BDC_switch_ideal library="Design kits/capstone" sch_x=-62 sch_y=13 sch_r=0 sch_f=false lay_x=0 lay_y=0
   S355 N$2373 N$2374 N$1288 N$1290 BDC_switch_ideal library="Design kits/capstone" sch_x=-62 sch_y=11 sch_r=0 sch_f=false lay_x=0 lay_y=0
   S356 N$2375 N$2376 N$1292 N$1294 BDC_switch_ideal library="Design kits/capstone" sch_x=-62 sch_y=9 sch_r=0 sch_f=false lay_x=0 lay_y=0
   S357 N$2377 N$2378 N$1296 N$1298 BDC_switch_ideal library="Design kits/capstone" sch_x=-62 sch_y=7 sch_r=0 sch_f=false lay_x=0 lay_y=0
   S358 N$2379 N$2380 N$1300 N$1302 BDC_switch_ideal library="Design kits/capstone" sch_x=-62 sch_y=5 sch_r=0 sch_f=false lay_x=0 lay_y=0
   S359 N$2381 N$2382 N$1304 N$1306 BDC_switch_ideal library="Design kits/capstone" sch_x=-62 sch_y=3 sch_r=0 sch_f=false lay_x=0 lay_y=0
   S360 N$2383 N$2384 N$1308 N$1310 BDC_switch_ideal library="Design kits/capstone" sch_x=-62 sch_y=1 sch_r=0 sch_f=false lay_x=0 lay_y=0
   S361 N$2385 N$2386 N$1312 N$1314 BDC_switch_ideal library="Design kits/capstone" sch_x=-62 sch_y=-1 sch_r=0 sch_f=false lay_x=0 lay_y=0
   S362 N$2387 N$2388 N$1316 N$1318 BDC_switch_ideal library="Design kits/capstone" sch_x=-62 sch_y=-3 sch_r=0 sch_f=false lay_x=0 lay_y=0
   S363 N$2389 N$2390 N$1320 N$1322 BDC_switch_ideal library="Design kits/capstone" sch_x=-62 sch_y=-5 sch_r=0 sch_f=false lay_x=0 lay_y=0
   S364 N$2391 N$2392 N$1324 N$1326 BDC_switch_ideal library="Design kits/capstone" sch_x=-62 sch_y=-7 sch_r=0 sch_f=false lay_x=0 lay_y=0
   S365 N$2393 N$2394 N$1328 N$1330 BDC_switch_ideal library="Design kits/capstone" sch_x=-62 sch_y=-9 sch_r=0 sch_f=false lay_x=0 lay_y=0
   S366 N$2395 N$2396 N$1332 N$1334 BDC_switch_ideal library="Design kits/capstone" sch_x=-62 sch_y=-11 sch_r=0 sch_f=false lay_x=0 lay_y=0
   S367 N$2397 N$2398 N$1336 N$1338 BDC_switch_ideal library="Design kits/capstone" sch_x=-62 sch_y=-13 sch_r=0 sch_f=false lay_x=0 lay_y=0
   S368 N$2399 N$2400 N$1340 N$1823 BDC_switch_ideal library="Design kits/capstone" sch_x=-62 sch_y=-15 sch_r=0 sch_f=false lay_x=0 lay_y=0
   C369 N$1281 N$1283 N$1761 N$1342 "Waveguide Crossing" sch_x=-60 sch_y=14 sch_r=0 sch_f=false lay_x=0 lay_y=0
   C370 N$1285 N$1287 N$1344 N$1346 "Waveguide Crossing" sch_x=-60 sch_y=12 sch_r=0 sch_f=false lay_x=0 lay_y=0
   C371 N$1289 N$1291 N$1348 N$1350 "Waveguide Crossing" sch_x=-60 sch_y=10 sch_r=0 sch_f=false lay_x=0 lay_y=0
   C372 N$1293 N$1295 N$1352 N$1354 "Waveguide Crossing" sch_x=-60 sch_y=8 sch_r=0 sch_f=false lay_x=0 lay_y=0
   C373 N$1297 N$1299 N$1356 N$1358 "Waveguide Crossing" sch_x=-60 sch_y=6 sch_r=0 sch_f=false lay_x=0 lay_y=0
   C374 N$1301 N$1303 N$1360 N$1362 "Waveguide Crossing" sch_x=-60 sch_y=4 sch_r=0 sch_f=false lay_x=0 lay_y=0
   C375 N$1305 N$1307 N$1364 N$1366 "Waveguide Crossing" sch_x=-60 sch_y=2 sch_r=0 sch_f=false lay_x=0 lay_y=0
   C376 N$1309 N$1311 N$1368 N$1370 "Waveguide Crossing" sch_x=-60 sch_y=0 sch_r=0 sch_f=false lay_x=0 lay_y=0
   C377 N$1313 N$1315 N$1372 N$1374 "Waveguide Crossing" sch_x=-60 sch_y=-2 sch_r=0 sch_f=false lay_x=0 lay_y=0
   C378 N$1317 N$1319 N$1376 N$1378 "Waveguide Crossing" sch_x=-60 sch_y=-4 sch_r=0 sch_f=false lay_x=0 lay_y=0
   C379 N$1321 N$1323 N$1380 N$1382 "Waveguide Crossing" sch_x=-60 sch_y=-6 sch_r=0 sch_f=false lay_x=0 lay_y=0
   C380 N$1325 N$1327 N$1384 N$1386 "Waveguide Crossing" sch_x=-60 sch_y=-8 sch_r=0 sch_f=false lay_x=0 lay_y=0
   C381 N$1329 N$1331 N$1388 N$1390 "Waveguide Crossing" sch_x=-60 sch_y=-10 sch_r=0 sch_f=false lay_x=0 lay_y=0
   C382 N$1333 N$1335 N$1392 N$1394 "Waveguide Crossing" sch_x=-60 sch_y=-12 sch_r=0 sch_f=false lay_x=0 lay_y=0
   C383 N$1337 N$1339 N$1396 N$1819 "Waveguide Crossing" sch_x=-60 sch_y=-14 sch_r=0 sch_f=false lay_x=0 lay_y=0
   C384 N$1341 N$1343 N$1763 N$1398 "Waveguide Crossing" sch_x=-58 sch_y=13 sch_r=0 sch_f=false lay_x=0 lay_y=0
   C385 N$1345 N$1347 N$1400 N$1402 "Waveguide Crossing" sch_x=-58 sch_y=11 sch_r=0 sch_f=false lay_x=0 lay_y=0
   C386 N$1349 N$1351 N$1404 N$1406 "Waveguide Crossing" sch_x=-58 sch_y=9 sch_r=0 sch_f=false lay_x=0 lay_y=0
   C387 N$1353 N$1355 N$1408 N$1410 "Waveguide Crossing" sch_x=-58 sch_y=7 sch_r=0 sch_f=false lay_x=0 lay_y=0
   C388 N$1357 N$1359 N$1412 N$1414 "Waveguide Crossing" sch_x=-58 sch_y=5 sch_r=0 sch_f=false lay_x=0 lay_y=0
   C389 N$1361 N$1363 N$1416 N$1418 "Waveguide Crossing" sch_x=-58 sch_y=3 sch_r=0 sch_f=false lay_x=0 lay_y=0
   C390 N$1365 N$1367 N$1420 N$1422 "Waveguide Crossing" sch_x=-58 sch_y=1 sch_r=0 sch_f=false lay_x=0 lay_y=0
   C391 N$1369 N$1371 N$1424 N$1426 "Waveguide Crossing" sch_x=-58 sch_y=-1 sch_r=0 sch_f=false lay_x=0 lay_y=0
   C392 N$1373 N$1375 N$1428 N$1430 "Waveguide Crossing" sch_x=-58 sch_y=-3 sch_r=0 sch_f=false lay_x=0 lay_y=0
   C393 N$1377 N$1379 N$1432 N$1434 "Waveguide Crossing" sch_x=-58 sch_y=-5 sch_r=0 sch_f=false lay_x=0 lay_y=0
   C394 N$1381 N$1383 N$1436 N$1438 "Waveguide Crossing" sch_x=-58 sch_y=-7 sch_r=0 sch_f=false lay_x=0 lay_y=0
   C395 N$1385 N$1387 N$1440 N$1442 "Waveguide Crossing" sch_x=-58 sch_y=-9 sch_r=0 sch_f=false lay_x=0 lay_y=0
   C396 N$1389 N$1391 N$1444 N$1446 "Waveguide Crossing" sch_x=-58 sch_y=-11 sch_r=0 sch_f=false lay_x=0 lay_y=0
   C397 N$1393 N$1395 N$1448 N$1817 "Waveguide Crossing" sch_x=-58 sch_y=-13 sch_r=0 sch_f=false lay_x=0 lay_y=0
   C398 N$1397 N$1399 N$1765 N$1450 "Waveguide Crossing" sch_x=-56 sch_y=12 sch_r=0 sch_f=false lay_x=0 lay_y=0
   C399 N$1401 N$1403 N$1452 N$1454 "Waveguide Crossing" sch_x=-56 sch_y=10 sch_r=0 sch_f=false lay_x=0 lay_y=0
   C400 N$1405 N$1407 N$1456 N$1458 "Waveguide Crossing" sch_x=-56 sch_y=8 sch_r=0 sch_f=false lay_x=0 lay_y=0
   C401 N$1409 N$1411 N$1460 N$1462 "Waveguide Crossing" sch_x=-56 sch_y=6 sch_r=0 sch_f=false lay_x=0 lay_y=0
   C402 N$1413 N$1415 N$1464 N$1466 "Waveguide Crossing" sch_x=-56 sch_y=4 sch_r=0 sch_f=false lay_x=0 lay_y=0
   C403 N$1417 N$1419 N$1468 N$1470 "Waveguide Crossing" sch_x=-56 sch_y=2 sch_r=0 sch_f=false lay_x=0 lay_y=0
   C404 N$1421 N$1423 N$1472 N$1474 "Waveguide Crossing" sch_x=-56 sch_y=0 sch_r=0 sch_f=false lay_x=0 lay_y=0
   C405 N$1425 N$1427 N$1476 N$1478 "Waveguide Crossing" sch_x=-56 sch_y=-2 sch_r=0 sch_f=false lay_x=0 lay_y=0
   C406 N$1429 N$1431 N$1480 N$1482 "Waveguide Crossing" sch_x=-56 sch_y=-4 sch_r=0 sch_f=false lay_x=0 lay_y=0
   C407 N$1433 N$1435 N$1484 N$1486 "Waveguide Crossing" sch_x=-56 sch_y=-6 sch_r=0 sch_f=false lay_x=0 lay_y=0
   C408 N$1437 N$1439 N$1488 N$1490 "Waveguide Crossing" sch_x=-56 sch_y=-8 sch_r=0 sch_f=false lay_x=0 lay_y=0
   C409 N$1441 N$1443 N$1492 N$1494 "Waveguide Crossing" sch_x=-56 sch_y=-10 sch_r=0 sch_f=false lay_x=0 lay_y=0
   C410 N$1445 N$1447 N$1496 N$1815 "Waveguide Crossing" sch_x=-56 sch_y=-12 sch_r=0 sch_f=false lay_x=0 lay_y=0
   C411 N$1449 N$1451 N$1767 N$1498 "Waveguide Crossing" sch_x=-54 sch_y=11 sch_r=0 sch_f=false lay_x=0 lay_y=0
   C412 N$1453 N$1455 N$1500 N$1502 "Waveguide Crossing" sch_x=-54 sch_y=9 sch_r=0 sch_f=false lay_x=0 lay_y=0
   C413 N$1457 N$1459 N$1504 N$1506 "Waveguide Crossing" sch_x=-54 sch_y=7 sch_r=0 sch_f=false lay_x=0 lay_y=0
   C414 N$1461 N$1463 N$1508 N$1510 "Waveguide Crossing" sch_x=-54 sch_y=5 sch_r=0 sch_f=false lay_x=0 lay_y=0
   C415 N$1465 N$1467 N$1512 N$1514 "Waveguide Crossing" sch_x=-54 sch_y=3 sch_r=0 sch_f=false lay_x=0 lay_y=0
   C416 N$1469 N$1471 N$1516 N$1518 "Waveguide Crossing" sch_x=-54 sch_y=1 sch_r=0 sch_f=false lay_x=0 lay_y=0
   C417 N$1473 N$1475 N$1520 N$1522 "Waveguide Crossing" sch_x=-54 sch_y=-1 sch_r=0 sch_f=false lay_x=0 lay_y=0
   C418 N$1477 N$1479 N$1524 N$1526 "Waveguide Crossing" sch_x=-54 sch_y=-3 sch_r=0 sch_f=false lay_x=0 lay_y=0
   C419 N$1481 N$1483 N$1528 N$1530 "Waveguide Crossing" sch_x=-54 sch_y=-5 sch_r=0 sch_f=false lay_x=0 lay_y=0
   C420 N$1485 N$1487 N$1532 N$1534 "Waveguide Crossing" sch_x=-54 sch_y=-7 sch_r=0 sch_f=false lay_x=0 lay_y=0
   C421 N$1489 N$1491 N$1536 N$1538 "Waveguide Crossing" sch_x=-54 sch_y=-9 sch_r=0 sch_f=false lay_x=0 lay_y=0
   C422 N$1493 N$1495 N$1540 N$1813 "Waveguide Crossing" sch_x=-54 sch_y=-11 sch_r=0 sch_f=false lay_x=0 lay_y=0
   C423 N$1497 N$1499 N$1769 N$1542 "Waveguide Crossing" sch_x=-52 sch_y=10 sch_r=0 sch_f=false lay_x=0 lay_y=0
   C424 N$1501 N$1503 N$1544 N$1546 "Waveguide Crossing" sch_x=-52 sch_y=8 sch_r=0 sch_f=false lay_x=0 lay_y=0
   C425 N$1505 N$1507 N$1548 N$1550 "Waveguide Crossing" sch_x=-52 sch_y=6 sch_r=0 sch_f=false lay_x=0 lay_y=0
   C426 N$1509 N$1511 N$1552 N$1554 "Waveguide Crossing" sch_x=-52 sch_y=4 sch_r=0 sch_f=false lay_x=0 lay_y=0
   C427 N$1513 N$1515 N$1556 N$1558 "Waveguide Crossing" sch_x=-52 sch_y=2 sch_r=0 sch_f=false lay_x=0 lay_y=0
   C428 N$1517 N$1519 N$1560 N$1562 "Waveguide Crossing" sch_x=-52 sch_y=0 sch_r=0 sch_f=false lay_x=0 lay_y=0
   C429 N$1521 N$1523 N$1564 N$1566 "Waveguide Crossing" sch_x=-52 sch_y=-2 sch_r=0 sch_f=false lay_x=0 lay_y=0
   C430 N$1525 N$1527 N$1568 N$1570 "Waveguide Crossing" sch_x=-52 sch_y=-4 sch_r=0 sch_f=false lay_x=0 lay_y=0
   C431 N$1529 N$1531 N$1572 N$1574 "Waveguide Crossing" sch_x=-52 sch_y=-6 sch_r=0 sch_f=false lay_x=0 lay_y=0
   C432 N$1533 N$1535 N$1576 N$1578 "Waveguide Crossing" sch_x=-52 sch_y=-8 sch_r=0 sch_f=false lay_x=0 lay_y=0
   C433 N$1537 N$1539 N$1580 N$1811 "Waveguide Crossing" sch_x=-52 sch_y=-10 sch_r=0 sch_f=false lay_x=0 lay_y=0
   C434 N$1541 N$1543 N$1771 N$1582 "Waveguide Crossing" sch_x=-50 sch_y=9 sch_r=0 sch_f=false lay_x=0 lay_y=0
   C435 N$1545 N$1547 N$1584 N$1586 "Waveguide Crossing" sch_x=-50 sch_y=7 sch_r=0 sch_f=false lay_x=0 lay_y=0
   C436 N$1549 N$1551 N$1588 N$1590 "Waveguide Crossing" sch_x=-50 sch_y=5 sch_r=0 sch_f=false lay_x=0 lay_y=0
   C437 N$1553 N$1555 N$1592 N$1594 "Waveguide Crossing" sch_x=-50 sch_y=3 sch_r=0 sch_f=false lay_x=0 lay_y=0
   C438 N$1557 N$1559 N$1596 N$1598 "Waveguide Crossing" sch_x=-50 sch_y=1 sch_r=0 sch_f=false lay_x=0 lay_y=0
   C439 N$1561 N$1563 N$1600 N$1602 "Waveguide Crossing" sch_x=-50 sch_y=-1 sch_r=0 sch_f=false lay_x=0 lay_y=0
   C440 N$1565 N$1567 N$1604 N$1606 "Waveguide Crossing" sch_x=-50 sch_y=-3 sch_r=0 sch_f=false lay_x=0 lay_y=0
   C441 N$1569 N$1571 N$1608 N$1610 "Waveguide Crossing" sch_x=-50 sch_y=-5 sch_r=0 sch_f=false lay_x=0 lay_y=0
   C442 N$1573 N$1575 N$1612 N$1614 "Waveguide Crossing" sch_x=-50 sch_y=-7 sch_r=0 sch_f=false lay_x=0 lay_y=0
   C443 N$1577 N$1579 N$1616 N$1809 "Waveguide Crossing" sch_x=-50 sch_y=-9 sch_r=0 sch_f=false lay_x=0 lay_y=0
   C444 N$1581 N$1583 N$1773 N$1618 "Waveguide Crossing" sch_x=-48 sch_y=8 sch_r=0 sch_f=false lay_x=0 lay_y=0
   C445 N$1585 N$1587 N$1620 N$1622 "Waveguide Crossing" sch_x=-48 sch_y=6 sch_r=0 sch_f=false lay_x=0 lay_y=0
   C446 N$1589 N$1591 N$1624 N$1626 "Waveguide Crossing" sch_x=-48 sch_y=4 sch_r=0 sch_f=false lay_x=0 lay_y=0
   C447 N$1593 N$1595 N$1628 N$1630 "Waveguide Crossing" sch_x=-48 sch_y=2 sch_r=0 sch_f=false lay_x=0 lay_y=0
   C448 N$1597 N$1599 N$1632 N$1634 "Waveguide Crossing" sch_x=-48 sch_y=0 sch_r=0 sch_f=false lay_x=0 lay_y=0
   C449 N$1601 N$1603 N$1636 N$1638 "Waveguide Crossing" sch_x=-48 sch_y=-2 sch_r=0 sch_f=false lay_x=0 lay_y=0
   C450 N$1605 N$1607 N$1640 N$1642 "Waveguide Crossing" sch_x=-48 sch_y=-4 sch_r=0 sch_f=false lay_x=0 lay_y=0
   C451 N$1609 N$1611 N$1644 N$1646 "Waveguide Crossing" sch_x=-48 sch_y=-6 sch_r=0 sch_f=false lay_x=0 lay_y=0
   C452 N$1613 N$1615 N$1648 N$1807 "Waveguide Crossing" sch_x=-48 sch_y=-8 sch_r=0 sch_f=false lay_x=0 lay_y=0
   C453 N$1617 N$1619 N$1775 N$1650 "Waveguide Crossing" sch_x=-46 sch_y=7 sch_r=0 sch_f=false lay_x=0 lay_y=0
   C454 N$1621 N$1623 N$1652 N$1654 "Waveguide Crossing" sch_x=-46 sch_y=5 sch_r=0 sch_f=false lay_x=0 lay_y=0
   C455 N$1625 N$1627 N$1656 N$1658 "Waveguide Crossing" sch_x=-46 sch_y=3 sch_r=0 sch_f=false lay_x=0 lay_y=0
   C456 N$1629 N$1631 N$1660 N$1662 "Waveguide Crossing" sch_x=-46 sch_y=1 sch_r=0 sch_f=false lay_x=0 lay_y=0
   C457 N$1633 N$1635 N$1664 N$1666 "Waveguide Crossing" sch_x=-46 sch_y=-1 sch_r=0 sch_f=false lay_x=0 lay_y=0
   C458 N$1637 N$1639 N$1668 N$1670 "Waveguide Crossing" sch_x=-46 sch_y=-3 sch_r=0 sch_f=false lay_x=0 lay_y=0
   C459 N$1641 N$1643 N$1672 N$1674 "Waveguide Crossing" sch_x=-46 sch_y=-5 sch_r=0 sch_f=false lay_x=0 lay_y=0
   C460 N$1645 N$1647 N$1676 N$1805 "Waveguide Crossing" sch_x=-46 sch_y=-7 sch_r=0 sch_f=false lay_x=0 lay_y=0
   C461 N$1649 N$1651 N$1777 N$1678 "Waveguide Crossing" sch_x=-44 sch_y=6 sch_r=0 sch_f=false lay_x=0 lay_y=0
   C462 N$1653 N$1655 N$1680 N$1682 "Waveguide Crossing" sch_x=-44 sch_y=4 sch_r=0 sch_f=false lay_x=0 lay_y=0
   C463 N$1657 N$1659 N$1684 N$1686 "Waveguide Crossing" sch_x=-44 sch_y=2 sch_r=0 sch_f=false lay_x=0 lay_y=0
   C464 N$1661 N$1663 N$1688 N$1690 "Waveguide Crossing" sch_x=-44 sch_y=0 sch_r=0 sch_f=false lay_x=0 lay_y=0
   C465 N$1665 N$1667 N$1692 N$1694 "Waveguide Crossing" sch_x=-44 sch_y=-2 sch_r=0 sch_f=false lay_x=0 lay_y=0
   C466 N$1669 N$1671 N$1696 N$1698 "Waveguide Crossing" sch_x=-44 sch_y=-4 sch_r=0 sch_f=false lay_x=0 lay_y=0
   C467 N$1673 N$1675 N$1700 N$1803 "Waveguide Crossing" sch_x=-44 sch_y=-6 sch_r=0 sch_f=false lay_x=0 lay_y=0
   C468 N$1677 N$1679 N$1779 N$1702 "Waveguide Crossing" sch_x=-42 sch_y=5 sch_r=0 sch_f=false lay_x=0 lay_y=0
   C469 N$1681 N$1683 N$1704 N$1706 "Waveguide Crossing" sch_x=-42 sch_y=3 sch_r=0 sch_f=false lay_x=0 lay_y=0
   C470 N$1685 N$1687 N$1708 N$1710 "Waveguide Crossing" sch_x=-42 sch_y=1 sch_r=0 sch_f=false lay_x=0 lay_y=0
   C471 N$1689 N$1691 N$1712 N$1714 "Waveguide Crossing" sch_x=-42 sch_y=-1 sch_r=0 sch_f=false lay_x=0 lay_y=0
   C472 N$1693 N$1695 N$1716 N$1718 "Waveguide Crossing" sch_x=-42 sch_y=-3 sch_r=0 sch_f=false lay_x=0 lay_y=0
   C473 N$1697 N$1699 N$1720 N$1801 "Waveguide Crossing" sch_x=-42 sch_y=-5 sch_r=0 sch_f=false lay_x=0 lay_y=0
   C474 N$1701 N$1703 N$1781 N$1722 "Waveguide Crossing" sch_x=-40 sch_y=4 sch_r=0 sch_f=false lay_x=0 lay_y=0
   C475 N$1705 N$1707 N$1724 N$1726 "Waveguide Crossing" sch_x=-40 sch_y=2 sch_r=0 sch_f=false lay_x=0 lay_y=0
   C476 N$1709 N$1711 N$1728 N$1730 "Waveguide Crossing" sch_x=-40 sch_y=0 sch_r=0 sch_f=false lay_x=0 lay_y=0
   C477 N$1713 N$1715 N$1732 N$1734 "Waveguide Crossing" sch_x=-40 sch_y=-2 sch_r=0 sch_f=false lay_x=0 lay_y=0
   C478 N$1717 N$1719 N$1736 N$1799 "Waveguide Crossing" sch_x=-40 sch_y=-4 sch_r=0 sch_f=false lay_x=0 lay_y=0
   C479 N$1721 N$1723 N$1783 N$1738 "Waveguide Crossing" sch_x=-38 sch_y=3 sch_r=0 sch_f=false lay_x=0 lay_y=0
   C480 N$1725 N$1727 N$1740 N$1742 "Waveguide Crossing" sch_x=-38 sch_y=1 sch_r=0 sch_f=false lay_x=0 lay_y=0
   C481 N$1729 N$1731 N$1744 N$1746 "Waveguide Crossing" sch_x=-38 sch_y=-1 sch_r=0 sch_f=false lay_x=0 lay_y=0
   C482 N$1733 N$1735 N$1748 N$1797 "Waveguide Crossing" sch_x=-38 sch_y=-3 sch_r=0 sch_f=false lay_x=0 lay_y=0
   C483 N$1737 N$1739 N$1785 N$1750 "Waveguide Crossing" sch_x=-36 sch_y=2 sch_r=0 sch_f=false lay_x=0 lay_y=0
   C484 N$1741 N$1743 N$1752 N$1754 "Waveguide Crossing" sch_x=-36 sch_y=0 sch_r=0 sch_f=false lay_x=0 lay_y=0
   C485 N$1745 N$1747 N$1756 N$1795 "Waveguide Crossing" sch_x=-36 sch_y=-2 sch_r=0 sch_f=false lay_x=0 lay_y=0
   C486 N$1749 N$1751 N$1787 N$1758 "Waveguide Crossing" sch_x=-34 sch_y=1 sch_r=0 sch_f=false lay_x=0 lay_y=0
   C487 N$1753 N$1755 N$1760 N$1793 "Waveguide Crossing" sch_x=-34 sch_y=-1 sch_r=0 sch_f=false lay_x=0 lay_y=0
   C488 N$1757 N$1759 N$1789 N$1791 "Waveguide Crossing" sch_x=-32 sch_y=0 sch_r=0 sch_f=false lay_x=0 lay_y=0
   S281 N$1792 N$1794 N$1133 N$994 BDC_switch_ideal library="Design kits/capstone" sch_x=-30 sch_y=-1 sch_r=0 sch_f=false lay_x=0 lay_y=0
   S282 N$1796 N$1798 N$996 N$998 BDC_switch_ideal library="Design kits/capstone" sch_x=-30 sch_y=-3 sch_r=0 sch_f=false lay_x=0 lay_y=0
   S283 N$1800 N$1802 N$1000 N$1002 BDC_switch_ideal library="Design kits/capstone" sch_x=-30 sch_y=-5 sch_r=0 sch_f=false lay_x=0 lay_y=0
   S284 N$1804 N$1806 N$1004 N$1006 BDC_switch_ideal library="Design kits/capstone" sch_x=-30 sch_y=-7 sch_r=0 sch_f=false lay_x=0 lay_y=0
   S285 N$1808 N$1810 N$1008 N$1010 BDC_switch_ideal library="Design kits/capstone" sch_x=-30 sch_y=-9 sch_r=0 sch_f=false lay_x=0 lay_y=0
   S286 N$1812 N$1814 N$1012 N$1014 BDC_switch_ideal library="Design kits/capstone" sch_x=-30 sch_y=-11 sch_r=0 sch_f=false lay_x=0 lay_y=0
   S287 N$1816 N$1818 N$1016 N$1018 BDC_switch_ideal library="Design kits/capstone" sch_x=-30 sch_y=-13 sch_r=0 sch_f=false lay_x=0 lay_y=0
   S288 N$1820 N$1824 N$1020 N$1135 BDC_switch_ideal library="Design kits/capstone" sch_x=-30 sch_y=-15 sch_r=0 sch_f=false lay_x=0 lay_y=0
   C289 N$993 N$995 N$1105 N$1022 "Waveguide Crossing" sch_x=-28 sch_y=-2 sch_r=0 sch_f=false lay_x=0 lay_y=0
   C290 N$997 N$999 N$1024 N$1026 "Waveguide Crossing" sch_x=-28 sch_y=-4 sch_r=0 sch_f=false lay_x=0 lay_y=0
   C291 N$1001 N$1003 N$1028 N$1030 "Waveguide Crossing" sch_x=-28 sch_y=-6 sch_r=0 sch_f=false lay_x=0 lay_y=0
   C292 N$1005 N$1007 N$1032 N$1034 "Waveguide Crossing" sch_x=-28 sch_y=-8 sch_r=0 sch_f=false lay_x=0 lay_y=0
   C293 N$1009 N$1011 N$1036 N$1038 "Waveguide Crossing" sch_x=-28 sch_y=-10 sch_r=0 sch_f=false lay_x=0 lay_y=0
   C294 N$1013 N$1015 N$1040 N$1042 "Waveguide Crossing" sch_x=-28 sch_y=-12 sch_r=0 sch_f=false lay_x=0 lay_y=0
   C295 N$1017 N$1019 N$1044 N$1131 "Waveguide Crossing" sch_x=-28 sch_y=-14 sch_r=0 sch_f=false lay_x=0 lay_y=0
   C296 N$1021 N$1023 N$1107 N$1046 "Waveguide Crossing" sch_x=-26 sch_y=-3 sch_r=0 sch_f=false lay_x=0 lay_y=0
   C297 N$1025 N$1027 N$1048 N$1050 "Waveguide Crossing" sch_x=-26 sch_y=-5 sch_r=0 sch_f=false lay_x=0 lay_y=0
   C298 N$1029 N$1031 N$1052 N$1054 "Waveguide Crossing" sch_x=-26 sch_y=-7 sch_r=0 sch_f=false lay_x=0 lay_y=0
   C299 N$1033 N$1035 N$1056 N$1058 "Waveguide Crossing" sch_x=-26 sch_y=-9 sch_r=0 sch_f=false lay_x=0 lay_y=0
   C300 N$1037 N$1039 N$1060 N$1062 "Waveguide Crossing" sch_x=-26 sch_y=-11 sch_r=0 sch_f=false lay_x=0 lay_y=0
   C301 N$1041 N$1043 N$1064 N$1129 "Waveguide Crossing" sch_x=-26 sch_y=-13 sch_r=0 sch_f=false lay_x=0 lay_y=0
   C302 N$1045 N$1047 N$1109 N$1066 "Waveguide Crossing" sch_x=-24 sch_y=-4 sch_r=0 sch_f=false lay_x=0 lay_y=0
   C303 N$1049 N$1051 N$1068 N$1070 "Waveguide Crossing" sch_x=-24 sch_y=-6 sch_r=0 sch_f=false lay_x=0 lay_y=0
   C304 N$1053 N$1055 N$1072 N$1074 "Waveguide Crossing" sch_x=-24 sch_y=-8 sch_r=0 sch_f=false lay_x=0 lay_y=0
   C305 N$1057 N$1059 N$1076 N$1078 "Waveguide Crossing" sch_x=-24 sch_y=-10 sch_r=0 sch_f=false lay_x=0 lay_y=0
   C306 N$1061 N$1063 N$1080 N$1127 "Waveguide Crossing" sch_x=-24 sch_y=-12 sch_r=0 sch_f=false lay_x=0 lay_y=0
   C307 N$1065 N$1067 N$1111 N$1082 "Waveguide Crossing" sch_x=-22 sch_y=-5 sch_r=0 sch_f=false lay_x=0 lay_y=0
   C308 N$1069 N$1071 N$1084 N$1086 "Waveguide Crossing" sch_x=-22 sch_y=-7 sch_r=0 sch_f=false lay_x=0 lay_y=0
   C309 N$1073 N$1075 N$1088 N$1090 "Waveguide Crossing" sch_x=-22 sch_y=-9 sch_r=0 sch_f=false lay_x=0 lay_y=0
   C310 N$1077 N$1079 N$1092 N$1125 "Waveguide Crossing" sch_x=-22 sch_y=-11 sch_r=0 sch_f=false lay_x=0 lay_y=0
   C311 N$1081 N$1083 N$1113 N$1094 "Waveguide Crossing" sch_x=-20 sch_y=-6 sch_r=0 sch_f=false lay_x=0 lay_y=0
   C312 N$1085 N$1087 N$1096 N$1098 "Waveguide Crossing" sch_x=-20 sch_y=-8 sch_r=0 sch_f=false lay_x=0 lay_y=0
   C313 N$1089 N$1091 N$1100 N$1123 "Waveguide Crossing" sch_x=-20 sch_y=-10 sch_r=0 sch_f=false lay_x=0 lay_y=0
   C314 N$1093 N$1095 N$1115 N$1102 "Waveguide Crossing" sch_x=-18 sch_y=-7 sch_r=0 sch_f=false lay_x=0 lay_y=0
   C315 N$1097 N$1099 N$1104 N$1121 "Waveguide Crossing" sch_x=-18 sch_y=-9 sch_r=0 sch_f=false lay_x=0 lay_y=0
   C316 N$1101 N$1103 N$1117 N$1119 "Waveguide Crossing" sch_x=-16 sch_y=-8 sch_r=0 sch_f=false lay_x=0 lay_y=0
   S261 N$1120 N$1122 N$949 N$914 BDC_switch_ideal library="Design kits/capstone" sch_x=-14 sch_y=-9 sch_r=0 sch_f=false lay_x=0 lay_y=0
   S262 N$1124 N$1126 N$916 N$918 BDC_switch_ideal library="Design kits/capstone" sch_x=-14 sch_y=-11 sch_r=0 sch_f=false lay_x=0 lay_y=0
   S263 N$1128 N$1130 N$920 N$922 BDC_switch_ideal library="Design kits/capstone" sch_x=-14 sch_y=-13 sch_r=0 sch_f=false lay_x=0 lay_y=0
   S264 N$1132 N$1136 N$924 N$951 BDC_switch_ideal library="Design kits/capstone" sch_x=-14 sch_y=-15 sch_r=0 sch_f=false lay_x=0 lay_y=0
   C265 N$913 N$915 N$937 N$926 "Waveguide Crossing" sch_x=-12 sch_y=-10 sch_r=0 sch_f=false lay_x=0 lay_y=0
   C266 N$917 N$919 N$928 N$930 "Waveguide Crossing" sch_x=-12 sch_y=-12 sch_r=0 sch_f=false lay_x=0 lay_y=0
   C267 N$921 N$923 N$932 N$947 "Waveguide Crossing" sch_x=-12 sch_y=-14 sch_r=0 sch_f=false lay_x=0 lay_y=0
   C268 N$925 N$927 N$939 N$934 "Waveguide Crossing" sch_x=-10 sch_y=-11 sch_r=0 sch_f=false lay_x=0 lay_y=0
   C269 N$929 N$931 N$936 N$945 "Waveguide Crossing" sch_x=-10 sch_y=-13 sch_r=0 sch_f=false lay_x=0 lay_y=0
   C270 N$933 N$935 N$941 N$943 "Waveguide Crossing" sch_x=-8 sch_y=-12 sch_r=0 sch_f=false lay_x=0 lay_y=0
   S209 N$1134 N$1106 N$773 N$738 BDC_switch_ideal library="Design kits/capstone" sch_x=-14 sch_y=-1 sch_r=0 sch_f=false lay_x=0 lay_y=0
   S210 N$1108 N$1110 N$740 N$742 BDC_switch_ideal library="Design kits/capstone" sch_x=-14 sch_y=-3 sch_r=0 sch_f=false lay_x=0 lay_y=0
   S211 N$1112 N$1114 N$744 N$746 BDC_switch_ideal library="Design kits/capstone" sch_x=-14 sch_y=-5 sch_r=0 sch_f=false lay_x=0 lay_y=0
   S212 N$1116 N$1118 N$748 N$775 BDC_switch_ideal library="Design kits/capstone" sch_x=-14 sch_y=-7 sch_r=0 sch_f=false lay_x=0 lay_y=0
   C213 N$737 N$739 N$761 N$750 "Waveguide Crossing" sch_x=-12 sch_y=-2 sch_r=0 sch_f=false lay_x=0 lay_y=0
   C214 N$741 N$743 N$752 N$754 "Waveguide Crossing" sch_x=-12 sch_y=-4 sch_r=0 sch_f=false lay_x=0 lay_y=0
   C215 N$745 N$747 N$756 N$771 "Waveguide Crossing" sch_x=-12 sch_y=-6 sch_r=0 sch_f=false lay_x=0 lay_y=0
   C216 N$749 N$751 N$763 N$758 "Waveguide Crossing" sch_x=-10 sch_y=-3 sch_r=0 sch_f=false lay_x=0 lay_y=0
   C217 N$753 N$755 N$760 N$769 "Waveguide Crossing" sch_x=-10 sch_y=-5 sch_r=0 sch_f=false lay_x=0 lay_y=0
   C218 N$757 N$759 N$765 N$767 "Waveguide Crossing" sch_x=-8 sch_y=-4 sch_r=0 sch_f=false lay_x=0 lay_y=0
   S105 N$1822 N$1762 N$493 N$354 BDC_switch_ideal library="Design kits/capstone" sch_x=-30 sch_y=15 sch_r=0 sch_f=false lay_x=0 lay_y=0
   S106 N$1764 N$1766 N$356 N$358 BDC_switch_ideal library="Design kits/capstone" sch_x=-30 sch_y=13 sch_r=0 sch_f=false lay_x=0 lay_y=0
   S107 N$1768 N$1770 N$360 N$362 BDC_switch_ideal library="Design kits/capstone" sch_x=-30 sch_y=11 sch_r=0 sch_f=false lay_x=0 lay_y=0
   S108 N$1772 N$1774 N$364 N$366 BDC_switch_ideal library="Design kits/capstone" sch_x=-30 sch_y=9 sch_r=0 sch_f=false lay_x=0 lay_y=0
   S109 N$1776 N$1778 N$368 N$370 BDC_switch_ideal library="Design kits/capstone" sch_x=-30 sch_y=7 sch_r=0 sch_f=false lay_x=0 lay_y=0
   S110 N$1780 N$1782 N$372 N$374 BDC_switch_ideal library="Design kits/capstone" sch_x=-30 sch_y=5 sch_r=0 sch_f=false lay_x=0 lay_y=0
   S111 N$1784 N$1786 N$376 N$378 BDC_switch_ideal library="Design kits/capstone" sch_x=-30 sch_y=3 sch_r=0 sch_f=false lay_x=0 lay_y=0
   S112 N$1788 N$1790 N$380 N$495 BDC_switch_ideal library="Design kits/capstone" sch_x=-30 sch_y=1 sch_r=0 sch_f=false lay_x=0 lay_y=0
   C113 N$353 N$355 N$465 N$382 "Waveguide Crossing" sch_x=-28 sch_y=14 sch_r=0 sch_f=false lay_x=0 lay_y=0
   C114 N$357 N$359 N$384 N$386 "Waveguide Crossing" sch_x=-28 sch_y=12 sch_r=0 sch_f=false lay_x=0 lay_y=0
   C115 N$361 N$363 N$388 N$390 "Waveguide Crossing" sch_x=-28 sch_y=10 sch_r=0 sch_f=false lay_x=0 lay_y=0
   C116 N$365 N$367 N$392 N$394 "Waveguide Crossing" sch_x=-28 sch_y=8 sch_r=0 sch_f=false lay_x=0 lay_y=0
   C117 N$369 N$371 N$396 N$398 "Waveguide Crossing" sch_x=-28 sch_y=6 sch_r=0 sch_f=false lay_x=0 lay_y=0
   C118 N$373 N$375 N$400 N$402 "Waveguide Crossing" sch_x=-28 sch_y=4 sch_r=0 sch_f=false lay_x=0 lay_y=0
   C119 N$377 N$379 N$404 N$491 "Waveguide Crossing" sch_x=-28 sch_y=2 sch_r=0 sch_f=false lay_x=0 lay_y=0
   C120 N$381 N$383 N$467 N$406 "Waveguide Crossing" sch_x=-26 sch_y=13 sch_r=0 sch_f=false lay_x=0 lay_y=0
   C121 N$385 N$387 N$408 N$410 "Waveguide Crossing" sch_x=-26 sch_y=11 sch_r=0 sch_f=false lay_x=0 lay_y=0
   C122 N$389 N$391 N$412 N$414 "Waveguide Crossing" sch_x=-26 sch_y=9 sch_r=0 sch_f=false lay_x=0 lay_y=0
   C123 N$393 N$395 N$416 N$418 "Waveguide Crossing" sch_x=-26 sch_y=7 sch_r=0 sch_f=false lay_x=0 lay_y=0
   C124 N$397 N$399 N$420 N$422 "Waveguide Crossing" sch_x=-26 sch_y=5 sch_r=0 sch_f=false lay_x=0 lay_y=0
   C125 N$401 N$403 N$424 N$489 "Waveguide Crossing" sch_x=-26 sch_y=3 sch_r=0 sch_f=false lay_x=0 lay_y=0
   C126 N$405 N$407 N$469 N$426 "Waveguide Crossing" sch_x=-24 sch_y=12 sch_r=0 sch_f=false lay_x=0 lay_y=0
   C127 N$409 N$411 N$428 N$430 "Waveguide Crossing" sch_x=-24 sch_y=10 sch_r=0 sch_f=false lay_x=0 lay_y=0
   C128 N$413 N$415 N$432 N$434 "Waveguide Crossing" sch_x=-24 sch_y=8 sch_r=0 sch_f=false lay_x=0 lay_y=0
   C129 N$417 N$419 N$436 N$438 "Waveguide Crossing" sch_x=-24 sch_y=6 sch_r=0 sch_f=false lay_x=0 lay_y=0
   C130 N$421 N$423 N$440 N$487 "Waveguide Crossing" sch_x=-24 sch_y=4 sch_r=0 sch_f=false lay_x=0 lay_y=0
   C131 N$425 N$427 N$471 N$442 "Waveguide Crossing" sch_x=-22 sch_y=11 sch_r=0 sch_f=false lay_x=0 lay_y=0
   C132 N$429 N$431 N$444 N$446 "Waveguide Crossing" sch_x=-22 sch_y=9 sch_r=0 sch_f=false lay_x=0 lay_y=0
   C133 N$433 N$435 N$448 N$450 "Waveguide Crossing" sch_x=-22 sch_y=7 sch_r=0 sch_f=false lay_x=0 lay_y=0
   C134 N$437 N$439 N$452 N$485 "Waveguide Crossing" sch_x=-22 sch_y=5 sch_r=0 sch_f=false lay_x=0 lay_y=0
   C135 N$441 N$443 N$473 N$454 "Waveguide Crossing" sch_x=-20 sch_y=10 sch_r=0 sch_f=false lay_x=0 lay_y=0
   C136 N$445 N$447 N$456 N$458 "Waveguide Crossing" sch_x=-20 sch_y=8 sch_r=0 sch_f=false lay_x=0 lay_y=0
   C137 N$449 N$451 N$460 N$483 "Waveguide Crossing" sch_x=-20 sch_y=6 sch_r=0 sch_f=false lay_x=0 lay_y=0
   C138 N$453 N$455 N$475 N$462 "Waveguide Crossing" sch_x=-18 sch_y=9 sch_r=0 sch_f=false lay_x=0 lay_y=0
   C139 N$457 N$459 N$464 N$481 "Waveguide Crossing" sch_x=-18 sch_y=7 sch_r=0 sch_f=false lay_x=0 lay_y=0
   C140 N$461 N$463 N$477 N$479 "Waveguide Crossing" sch_x=-16 sch_y=8 sch_r=0 sch_f=false lay_x=0 lay_y=0
   S85 N$480 N$482 N$309 N$274 BDC_switch_ideal library="Design kits/capstone" sch_x=-14 sch_y=7 sch_r=0 sch_f=false lay_x=0 lay_y=0
   S86 N$484 N$486 N$276 N$278 BDC_switch_ideal library="Design kits/capstone" sch_x=-14 sch_y=5 sch_r=0 sch_f=false lay_x=0 lay_y=0
   S87 N$488 N$490 N$280 N$282 BDC_switch_ideal library="Design kits/capstone" sch_x=-14 sch_y=3 sch_r=0 sch_f=false lay_x=0 lay_y=0
   S88 N$492 N$496 N$284 N$311 BDC_switch_ideal library="Design kits/capstone" sch_x=-14 sch_y=1 sch_r=0 sch_f=false lay_x=0 lay_y=0
   C89 N$273 N$275 N$297 N$286 "Waveguide Crossing" sch_x=-12 sch_y=6 sch_r=0 sch_f=false lay_x=0 lay_y=0
   C90 N$277 N$279 N$288 N$290 "Waveguide Crossing" sch_x=-12 sch_y=4 sch_r=0 sch_f=false lay_x=0 lay_y=0
   C91 N$281 N$283 N$292 N$307 "Waveguide Crossing" sch_x=-12 sch_y=2 sch_r=0 sch_f=false lay_x=0 lay_y=0
   C92 N$285 N$287 N$299 N$294 "Waveguide Crossing" sch_x=-10 sch_y=5 sch_r=0 sch_f=false lay_x=0 lay_y=0
   C93 N$289 N$291 N$296 N$305 "Waveguide Crossing" sch_x=-10 sch_y=3 sch_r=0 sch_f=false lay_x=0 lay_y=0
   C94 N$293 N$295 N$301 N$303 "Waveguide Crossing" sch_x=-8 sch_y=4 sch_r=0 sch_f=false lay_x=0 lay_y=0
   S33 N$494 N$466 N$133 N$98 BDC_switch_ideal library="Design kits/capstone" sch_x=-14 sch_y=15 sch_r=0 sch_f=false lay_x=0 lay_y=0
   S34 N$468 N$470 N$100 N$102 BDC_switch_ideal library="Design kits/capstone" sch_x=-14 sch_y=13 sch_r=0 sch_f=false lay_x=0 lay_y=0
   S35 N$472 N$474 N$104 N$106 BDC_switch_ideal library="Design kits/capstone" sch_x=-14 sch_y=11 sch_r=0 sch_f=false lay_x=0 lay_y=0
   S36 N$476 N$478 N$108 N$135 BDC_switch_ideal library="Design kits/capstone" sch_x=-14 sch_y=9 sch_r=0 sch_f=false lay_x=0 lay_y=0
   C37 N$97 N$99 N$121 N$110 "Waveguide Crossing" sch_x=-12 sch_y=14 sch_r=0 sch_f=false lay_x=0 lay_y=0
   C38 N$101 N$103 N$112 N$114 "Waveguide Crossing" sch_x=-12 sch_y=12 sch_r=0 sch_f=false lay_x=0 lay_y=0
   C39 N$105 N$107 N$116 N$131 "Waveguide Crossing" sch_x=-12 sch_y=10 sch_r=0 sch_f=false lay_x=0 lay_y=0
   C40 N$109 N$111 N$123 N$118 "Waveguide Crossing" sch_x=-10 sch_y=13 sch_r=0 sch_f=false lay_x=0 lay_y=0
   C41 N$113 N$115 N$120 N$129 "Waveguide Crossing" sch_x=-10 sch_y=11 sch_r=0 sch_f=false lay_x=0 lay_y=0
   C42 N$117 N$119 N$125 N$127 "Waveguide Crossing" sch_x=-8 sch_y=12 sch_r=0 sch_f=false lay_x=0 lay_y=0