*
* MAIN CELL: Component pathname : root_element
*
   .MODEL BDC_switch_ideal "label 1"="TE" "control"=1
   .MODEL "Waveguide Crossing" "label 1"="TE" "transmission 1"=0.9954054174 "cross talk 1"=0.0001
   + "transmission 2"=1 "cross talk 2"=0 "reflection 1"=0.001
   + "reflection 2"=0 "label 2"="TM" "orthogonal identifier 1"=1
   + "orthogonal identifier 2"=2
   .MODEL "Straight Waveguide" "excess loss temperature sensitivity 2"=0 "label 1"="TE" "orthogonal identifier 1"=1 
   + "loss 1"=0 "number of taps"=64 "dispersion 1"=0 
   + "effective index temperature sensitivity 2"=0 "effective index 2"=1 length=10u 
   + "group index 2"=1 "orthogonal identifier 2"=2 "nominal temperature"=300 
   + "loss 2"=0 "dispersion 2"=0 frequency=193.1T 
   + "digital filter"=0 "run diagnostic"=0 "window function"="rectangular" 
   + "thermal fill factor"=1 "excess loss temperature sensitivity 1"=0 "label 2"="TM" 
   + "thermal effects"=0 "effective index temperature sensitivity 1"=0 "effective index 1"=1 

.subckt HDBE  N$34561 N$34563 N$34565 N$34567 N$34569 N$34571 N$34573 N$34575 N$34577 N$34579 N$34581 N$34583 N$34585 N$34587 N$34589 N$34591 N$34593 N$34595 N$34597 N$34599 N$34601 N$34603 N$34605 N$34607 N$34609 N$34611 N$34613 N$34615 N$34617 N$34619 N$34621 N$34623 N$34625 N$34627 N$34629 N$34631 N$34633 N$34635 N$34637 N$34639 N$34641 N$34643 N$34645 N$34647 N$34649 N$34651 N$34653 N$34655 N$34657 N$34659 N$34661 N$34663 N$34665 N$34667 N$34669 N$34671 N$34673 N$34675 N$34677 N$34679 N$34681 N$34683 N$34685 N$34687 N$34945 N$34947 N$34949 N$34951 N$34953 N$34955 N$34957 N$34959 N$34961 N$34963 N$34965 N$34967 N$34969 N$34971 N$34973 N$34975 N$34977 N$34979 N$34981 N$34983 N$34985 N$34987 N$34989 N$34991 N$34993 N$34995 N$34997 N$34999 N$35001 N$35003 N$35005 N$35007 N$35009 N$35011 N$35013 N$35015 N$35017 N$35019 N$35021 N$35023 N$35025 N$35027 N$35029 N$35031 N$35033 N$35035 N$35037 N$35039 N$35041 N$35043 N$35045 N$35047 N$35049 N$35051 N$35053 N$35055 N$35057 N$35059 N$35061 N$35063 N$35065 N$35067 N$35069 N$35071
   S4609 N$34561 N$34562 N$26237 N$17922 BDC_switch_ideal library="Design kits/capstone" sch_x=-254 sch_y=63 sch_r=0 sch_f=false lay_x=0 lay_y=0
   S4610 N$34563 N$34564 N$17924 N$17926 BDC_switch_ideal library="Design kits/capstone" sch_x=-254 sch_y=61 sch_r=0 sch_f=false lay_x=0 lay_y=0
   S4611 N$34565 N$34566 N$17928 N$17930 BDC_switch_ideal library="Design kits/capstone" sch_x=-254 sch_y=59 sch_r=0 sch_f=false lay_x=0 lay_y=0
   S4612 N$34567 N$34568 N$17932 N$17934 BDC_switch_ideal library="Design kits/capstone" sch_x=-254 sch_y=57 sch_r=0 sch_f=false lay_x=0 lay_y=0
   S4613 N$34569 N$34570 N$17936 N$17938 BDC_switch_ideal library="Design kits/capstone" sch_x=-254 sch_y=55 sch_r=0 sch_f=false lay_x=0 lay_y=0
   S4614 N$34571 N$34572 N$17940 N$17942 BDC_switch_ideal library="Design kits/capstone" sch_x=-254 sch_y=53 sch_r=0 sch_f=false lay_x=0 lay_y=0
   S4615 N$34573 N$34574 N$17944 N$17946 BDC_switch_ideal library="Design kits/capstone" sch_x=-254 sch_y=51 sch_r=0 sch_f=false lay_x=0 lay_y=0
   S4616 N$34575 N$34576 N$17948 N$17950 BDC_switch_ideal library="Design kits/capstone" sch_x=-254 sch_y=49 sch_r=0 sch_f=false lay_x=0 lay_y=0
   S4617 N$34577 N$34578 N$17952 N$17954 BDC_switch_ideal library="Design kits/capstone" sch_x=-254 sch_y=47 sch_r=0 sch_f=false lay_x=0 lay_y=0
   S4618 N$34579 N$34580 N$17956 N$17958 BDC_switch_ideal library="Design kits/capstone" sch_x=-254 sch_y=45 sch_r=0 sch_f=false lay_x=0 lay_y=0
   S4619 N$34581 N$34582 N$17960 N$17962 BDC_switch_ideal library="Design kits/capstone" sch_x=-254 sch_y=43 sch_r=0 sch_f=false lay_x=0 lay_y=0
   S4620 N$34583 N$34584 N$17964 N$17966 BDC_switch_ideal library="Design kits/capstone" sch_x=-254 sch_y=41 sch_r=0 sch_f=false lay_x=0 lay_y=0
   S4621 N$34585 N$34586 N$17968 N$17970 BDC_switch_ideal library="Design kits/capstone" sch_x=-254 sch_y=39 sch_r=0 sch_f=false lay_x=0 lay_y=0
   S4622 N$34587 N$34588 N$17972 N$17974 BDC_switch_ideal library="Design kits/capstone" sch_x=-254 sch_y=37 sch_r=0 sch_f=false lay_x=0 lay_y=0
   S4623 N$34589 N$34590 N$17976 N$17978 BDC_switch_ideal library="Design kits/capstone" sch_x=-254 sch_y=35 sch_r=0 sch_f=false lay_x=0 lay_y=0
   S4624 N$34591 N$34592 N$17980 N$17982 BDC_switch_ideal library="Design kits/capstone" sch_x=-254 sch_y=33 sch_r=0 sch_f=false lay_x=0 lay_y=0
   S4625 N$34593 N$34594 N$17984 N$17986 BDC_switch_ideal library="Design kits/capstone" sch_x=-254 sch_y=31 sch_r=0 sch_f=false lay_x=0 lay_y=0
   S4626 N$34595 N$34596 N$17988 N$17990 BDC_switch_ideal library="Design kits/capstone" sch_x=-254 sch_y=29 sch_r=0 sch_f=false lay_x=0 lay_y=0
   S4627 N$34597 N$34598 N$17992 N$17994 BDC_switch_ideal library="Design kits/capstone" sch_x=-254 sch_y=27 sch_r=0 sch_f=false lay_x=0 lay_y=0
   S4628 N$34599 N$34600 N$17996 N$17998 BDC_switch_ideal library="Design kits/capstone" sch_x=-254 sch_y=25 sch_r=0 sch_f=false lay_x=0 lay_y=0
   S4629 N$34601 N$34602 N$18000 N$18002 BDC_switch_ideal library="Design kits/capstone" sch_x=-254 sch_y=23 sch_r=0 sch_f=false lay_x=0 lay_y=0
   S4630 N$34603 N$34604 N$18004 N$18006 BDC_switch_ideal library="Design kits/capstone" sch_x=-254 sch_y=21 sch_r=0 sch_f=false lay_x=0 lay_y=0
   S4631 N$34605 N$34606 N$18008 N$18010 BDC_switch_ideal library="Design kits/capstone" sch_x=-254 sch_y=19 sch_r=0 sch_f=false lay_x=0 lay_y=0
   S4632 N$34607 N$34608 N$18012 N$18014 BDC_switch_ideal library="Design kits/capstone" sch_x=-254 sch_y=17 sch_r=0 sch_f=false lay_x=0 lay_y=0
   S4633 N$34609 N$34610 N$18016 N$18018 BDC_switch_ideal library="Design kits/capstone" sch_x=-254 sch_y=15 sch_r=0 sch_f=false lay_x=0 lay_y=0
   S4634 N$34611 N$34612 N$18020 N$18022 BDC_switch_ideal library="Design kits/capstone" sch_x=-254 sch_y=13 sch_r=0 sch_f=false lay_x=0 lay_y=0
   S4635 N$34613 N$34614 N$18024 N$18026 BDC_switch_ideal library="Design kits/capstone" sch_x=-254 sch_y=11 sch_r=0 sch_f=false lay_x=0 lay_y=0
   S4636 N$34615 N$34616 N$18028 N$18030 BDC_switch_ideal library="Design kits/capstone" sch_x=-254 sch_y=9 sch_r=0 sch_f=false lay_x=0 lay_y=0
   S4637 N$34617 N$34618 N$18032 N$18034 BDC_switch_ideal library="Design kits/capstone" sch_x=-254 sch_y=7 sch_r=0 sch_f=false lay_x=0 lay_y=0
   S4638 N$34619 N$34620 N$18036 N$18038 BDC_switch_ideal library="Design kits/capstone" sch_x=-254 sch_y=5 sch_r=0 sch_f=false lay_x=0 lay_y=0
   S4639 N$34621 N$34622 N$18040 N$18042 BDC_switch_ideal library="Design kits/capstone" sch_x=-254 sch_y=3 sch_r=0 sch_f=false lay_x=0 lay_y=0
   S4640 N$34623 N$34624 N$18044 N$18046 BDC_switch_ideal library="Design kits/capstone" sch_x=-254 sch_y=1 sch_r=0 sch_f=false lay_x=0 lay_y=0
   S4641 N$34625 N$34626 N$18048 N$18050 BDC_switch_ideal library="Design kits/capstone" sch_x=-254 sch_y=-1 sch_r=0 sch_f=false lay_x=0 lay_y=0
   S4642 N$34627 N$34628 N$18052 N$18054 BDC_switch_ideal library="Design kits/capstone" sch_x=-254 sch_y=-3 sch_r=0 sch_f=false lay_x=0 lay_y=0
   S4643 N$34629 N$34630 N$18056 N$18058 BDC_switch_ideal library="Design kits/capstone" sch_x=-254 sch_y=-5 sch_r=0 sch_f=false lay_x=0 lay_y=0
   S4644 N$34631 N$34632 N$18060 N$18062 BDC_switch_ideal library="Design kits/capstone" sch_x=-254 sch_y=-7 sch_r=0 sch_f=false lay_x=0 lay_y=0
   S4645 N$34633 N$34634 N$18064 N$18066 BDC_switch_ideal library="Design kits/capstone" sch_x=-254 sch_y=-9 sch_r=0 sch_f=false lay_x=0 lay_y=0
   S4646 N$34635 N$34636 N$18068 N$18070 BDC_switch_ideal library="Design kits/capstone" sch_x=-254 sch_y=-11 sch_r=0 sch_f=false lay_x=0 lay_y=0
   S4647 N$34637 N$34638 N$18072 N$18074 BDC_switch_ideal library="Design kits/capstone" sch_x=-254 sch_y=-13 sch_r=0 sch_f=false lay_x=0 lay_y=0
   S4648 N$34639 N$34640 N$18076 N$18078 BDC_switch_ideal library="Design kits/capstone" sch_x=-254 sch_y=-15 sch_r=0 sch_f=false lay_x=0 lay_y=0
   S4649 N$34641 N$34642 N$18080 N$18082 BDC_switch_ideal library="Design kits/capstone" sch_x=-254 sch_y=-17 sch_r=0 sch_f=false lay_x=0 lay_y=0
   S4650 N$34643 N$34644 N$18084 N$18086 BDC_switch_ideal library="Design kits/capstone" sch_x=-254 sch_y=-19 sch_r=0 sch_f=false lay_x=0 lay_y=0
   S4651 N$34645 N$34646 N$18088 N$18090 BDC_switch_ideal library="Design kits/capstone" sch_x=-254 sch_y=-21 sch_r=0 sch_f=false lay_x=0 lay_y=0
   S4652 N$34647 N$34648 N$18092 N$18094 BDC_switch_ideal library="Design kits/capstone" sch_x=-254 sch_y=-23 sch_r=0 sch_f=false lay_x=0 lay_y=0
   S4653 N$34649 N$34650 N$18096 N$18098 BDC_switch_ideal library="Design kits/capstone" sch_x=-254 sch_y=-25 sch_r=0 sch_f=false lay_x=0 lay_y=0
   S4654 N$34651 N$34652 N$18100 N$18102 BDC_switch_ideal library="Design kits/capstone" sch_x=-254 sch_y=-27 sch_r=0 sch_f=false lay_x=0 lay_y=0
   S4655 N$34653 N$34654 N$18104 N$18106 BDC_switch_ideal library="Design kits/capstone" sch_x=-254 sch_y=-29 sch_r=0 sch_f=false lay_x=0 lay_y=0
   S4656 N$34655 N$34656 N$18108 N$18110 BDC_switch_ideal library="Design kits/capstone" sch_x=-254 sch_y=-31 sch_r=0 sch_f=false lay_x=0 lay_y=0
   S4657 N$34657 N$34658 N$18112 N$18114 BDC_switch_ideal library="Design kits/capstone" sch_x=-254 sch_y=-33 sch_r=0 sch_f=false lay_x=0 lay_y=0
   S4658 N$34659 N$34660 N$18116 N$18118 BDC_switch_ideal library="Design kits/capstone" sch_x=-254 sch_y=-35 sch_r=0 sch_f=false lay_x=0 lay_y=0
   S4659 N$34661 N$34662 N$18120 N$18122 BDC_switch_ideal library="Design kits/capstone" sch_x=-254 sch_y=-37 sch_r=0 sch_f=false lay_x=0 lay_y=0
   S4660 N$34663 N$34664 N$18124 N$18126 BDC_switch_ideal library="Design kits/capstone" sch_x=-254 sch_y=-39 sch_r=0 sch_f=false lay_x=0 lay_y=0
   S4661 N$34665 N$34666 N$18128 N$18130 BDC_switch_ideal library="Design kits/capstone" sch_x=-254 sch_y=-41 sch_r=0 sch_f=false lay_x=0 lay_y=0
   S4662 N$34667 N$34668 N$18132 N$18134 BDC_switch_ideal library="Design kits/capstone" sch_x=-254 sch_y=-43 sch_r=0 sch_f=false lay_x=0 lay_y=0
   S4663 N$34669 N$34670 N$18136 N$18138 BDC_switch_ideal library="Design kits/capstone" sch_x=-254 sch_y=-45 sch_r=0 sch_f=false lay_x=0 lay_y=0
   S4664 N$34671 N$34672 N$18140 N$18142 BDC_switch_ideal library="Design kits/capstone" sch_x=-254 sch_y=-47 sch_r=0 sch_f=false lay_x=0 lay_y=0
   S4665 N$34673 N$34674 N$18144 N$18146 BDC_switch_ideal library="Design kits/capstone" sch_x=-254 sch_y=-49 sch_r=0 sch_f=false lay_x=0 lay_y=0
   S4666 N$34675 N$34676 N$18148 N$18150 BDC_switch_ideal library="Design kits/capstone" sch_x=-254 sch_y=-51 sch_r=0 sch_f=false lay_x=0 lay_y=0
   S4667 N$34677 N$34678 N$18152 N$18154 BDC_switch_ideal library="Design kits/capstone" sch_x=-254 sch_y=-53 sch_r=0 sch_f=false lay_x=0 lay_y=0
   S4668 N$34679 N$34680 N$18156 N$18158 BDC_switch_ideal library="Design kits/capstone" sch_x=-254 sch_y=-55 sch_r=0 sch_f=false lay_x=0 lay_y=0
   S4669 N$34681 N$34682 N$18160 N$18162 BDC_switch_ideal library="Design kits/capstone" sch_x=-254 sch_y=-57 sch_r=0 sch_f=false lay_x=0 lay_y=0
   S4670 N$34683 N$34684 N$18164 N$18166 BDC_switch_ideal library="Design kits/capstone" sch_x=-254 sch_y=-59 sch_r=0 sch_f=false lay_x=0 lay_y=0
   S4671 N$34685 N$34686 N$18168 N$18170 BDC_switch_ideal library="Design kits/capstone" sch_x=-254 sch_y=-61 sch_r=0 sch_f=false lay_x=0 lay_y=0
   S4672 N$34687 N$34688 N$18172 N$26239 BDC_switch_ideal library="Design kits/capstone" sch_x=-254 sch_y=-63 sch_r=0 sch_f=false lay_x=0 lay_y=0
   C4673 N$17921 N$17923 N$25985 N$18174 "Waveguide Crossing" sch_x=-252 sch_y=62 sch_r=0 sch_f=false lay_x=0 lay_y=0
   C4674 N$17925 N$17927 N$18176 N$18178 "Waveguide Crossing" sch_x=-252 sch_y=60 sch_r=0 sch_f=false lay_x=0 lay_y=0
   C4675 N$17929 N$17931 N$18180 N$18182 "Waveguide Crossing" sch_x=-252 sch_y=58 sch_r=0 sch_f=false lay_x=0 lay_y=0
   C4676 N$17933 N$17935 N$18184 N$18186 "Waveguide Crossing" sch_x=-252 sch_y=56 sch_r=0 sch_f=false lay_x=0 lay_y=0
   C4677 N$17937 N$17939 N$18188 N$18190 "Waveguide Crossing" sch_x=-252 sch_y=54 sch_r=0 sch_f=false lay_x=0 lay_y=0
   C4678 N$17941 N$17943 N$18192 N$18194 "Waveguide Crossing" sch_x=-252 sch_y=52 sch_r=0 sch_f=false lay_x=0 lay_y=0
   C4679 N$17945 N$17947 N$18196 N$18198 "Waveguide Crossing" sch_x=-252 sch_y=50 sch_r=0 sch_f=false lay_x=0 lay_y=0
   C4680 N$17949 N$17951 N$18200 N$18202 "Waveguide Crossing" sch_x=-252 sch_y=48 sch_r=0 sch_f=false lay_x=0 lay_y=0
   C4681 N$17953 N$17955 N$18204 N$18206 "Waveguide Crossing" sch_x=-252 sch_y=46 sch_r=0 sch_f=false lay_x=0 lay_y=0
   C4682 N$17957 N$17959 N$18208 N$18210 "Waveguide Crossing" sch_x=-252 sch_y=44 sch_r=0 sch_f=false lay_x=0 lay_y=0
   C4683 N$17961 N$17963 N$18212 N$18214 "Waveguide Crossing" sch_x=-252 sch_y=42 sch_r=0 sch_f=false lay_x=0 lay_y=0
   C4684 N$17965 N$17967 N$18216 N$18218 "Waveguide Crossing" sch_x=-252 sch_y=40 sch_r=0 sch_f=false lay_x=0 lay_y=0
   C4685 N$17969 N$17971 N$18220 N$18222 "Waveguide Crossing" sch_x=-252 sch_y=38 sch_r=0 sch_f=false lay_x=0 lay_y=0
   C4686 N$17973 N$17975 N$18224 N$18226 "Waveguide Crossing" sch_x=-252 sch_y=36 sch_r=0 sch_f=false lay_x=0 lay_y=0
   C4687 N$17977 N$17979 N$18228 N$18230 "Waveguide Crossing" sch_x=-252 sch_y=34 sch_r=0 sch_f=false lay_x=0 lay_y=0
   C4688 N$17981 N$17983 N$18232 N$18234 "Waveguide Crossing" sch_x=-252 sch_y=32 sch_r=0 sch_f=false lay_x=0 lay_y=0
   C4689 N$17985 N$17987 N$18236 N$18238 "Waveguide Crossing" sch_x=-252 sch_y=30 sch_r=0 sch_f=false lay_x=0 lay_y=0
   C4690 N$17989 N$17991 N$18240 N$18242 "Waveguide Crossing" sch_x=-252 sch_y=28 sch_r=0 sch_f=false lay_x=0 lay_y=0
   C4691 N$17993 N$17995 N$18244 N$18246 "Waveguide Crossing" sch_x=-252 sch_y=26 sch_r=0 sch_f=false lay_x=0 lay_y=0
   C4692 N$17997 N$17999 N$18248 N$18250 "Waveguide Crossing" sch_x=-252 sch_y=24 sch_r=0 sch_f=false lay_x=0 lay_y=0
   C4693 N$18001 N$18003 N$18252 N$18254 "Waveguide Crossing" sch_x=-252 sch_y=22 sch_r=0 sch_f=false lay_x=0 lay_y=0
   C4694 N$18005 N$18007 N$18256 N$18258 "Waveguide Crossing" sch_x=-252 sch_y=20 sch_r=0 sch_f=false lay_x=0 lay_y=0
   C4695 N$18009 N$18011 N$18260 N$18262 "Waveguide Crossing" sch_x=-252 sch_y=18 sch_r=0 sch_f=false lay_x=0 lay_y=0
   C4696 N$18013 N$18015 N$18264 N$18266 "Waveguide Crossing" sch_x=-252 sch_y=16 sch_r=0 sch_f=false lay_x=0 lay_y=0
   C4697 N$18017 N$18019 N$18268 N$18270 "Waveguide Crossing" sch_x=-252 sch_y=14 sch_r=0 sch_f=false lay_x=0 lay_y=0
   C4698 N$18021 N$18023 N$18272 N$18274 "Waveguide Crossing" sch_x=-252 sch_y=12 sch_r=0 sch_f=false lay_x=0 lay_y=0
   C4699 N$18025 N$18027 N$18276 N$18278 "Waveguide Crossing" sch_x=-252 sch_y=10 sch_r=0 sch_f=false lay_x=0 lay_y=0
   C4700 N$18029 N$18031 N$18280 N$18282 "Waveguide Crossing" sch_x=-252 sch_y=8 sch_r=0 sch_f=false lay_x=0 lay_y=0
   C4701 N$18033 N$18035 N$18284 N$18286 "Waveguide Crossing" sch_x=-252 sch_y=6 sch_r=0 sch_f=false lay_x=0 lay_y=0
   C4702 N$18037 N$18039 N$18288 N$18290 "Waveguide Crossing" sch_x=-252 sch_y=4 sch_r=0 sch_f=false lay_x=0 lay_y=0
   C4703 N$18041 N$18043 N$18292 N$18294 "Waveguide Crossing" sch_x=-252 sch_y=2 sch_r=0 sch_f=false lay_x=0 lay_y=0
   C4704 N$18045 N$18047 N$18296 N$18298 "Waveguide Crossing" sch_x=-252 sch_y=0 sch_r=0 sch_f=false lay_x=0 lay_y=0
   C4705 N$18049 N$18051 N$18300 N$18302 "Waveguide Crossing" sch_x=-252 sch_y=-2 sch_r=0 sch_f=false lay_x=0 lay_y=0
   C4706 N$18053 N$18055 N$18304 N$18306 "Waveguide Crossing" sch_x=-252 sch_y=-4 sch_r=0 sch_f=false lay_x=0 lay_y=0
   C4707 N$18057 N$18059 N$18308 N$18310 "Waveguide Crossing" sch_x=-252 sch_y=-6 sch_r=0 sch_f=false lay_x=0 lay_y=0
   C4708 N$18061 N$18063 N$18312 N$18314 "Waveguide Crossing" sch_x=-252 sch_y=-8 sch_r=0 sch_f=false lay_x=0 lay_y=0
   C4709 N$18065 N$18067 N$18316 N$18318 "Waveguide Crossing" sch_x=-252 sch_y=-10 sch_r=0 sch_f=false lay_x=0 lay_y=0
   C4710 N$18069 N$18071 N$18320 N$18322 "Waveguide Crossing" sch_x=-252 sch_y=-12 sch_r=0 sch_f=false lay_x=0 lay_y=0
   C4711 N$18073 N$18075 N$18324 N$18326 "Waveguide Crossing" sch_x=-252 sch_y=-14 sch_r=0 sch_f=false lay_x=0 lay_y=0
   C4712 N$18077 N$18079 N$18328 N$18330 "Waveguide Crossing" sch_x=-252 sch_y=-16 sch_r=0 sch_f=false lay_x=0 lay_y=0
   C4713 N$18081 N$18083 N$18332 N$18334 "Waveguide Crossing" sch_x=-252 sch_y=-18 sch_r=0 sch_f=false lay_x=0 lay_y=0
   C4714 N$18085 N$18087 N$18336 N$18338 "Waveguide Crossing" sch_x=-252 sch_y=-20 sch_r=0 sch_f=false lay_x=0 lay_y=0
   C4715 N$18089 N$18091 N$18340 N$18342 "Waveguide Crossing" sch_x=-252 sch_y=-22 sch_r=0 sch_f=false lay_x=0 lay_y=0
   C4716 N$18093 N$18095 N$18344 N$18346 "Waveguide Crossing" sch_x=-252 sch_y=-24 sch_r=0 sch_f=false lay_x=0 lay_y=0
   C4717 N$18097 N$18099 N$18348 N$18350 "Waveguide Crossing" sch_x=-252 sch_y=-26 sch_r=0 sch_f=false lay_x=0 lay_y=0
   C4718 N$18101 N$18103 N$18352 N$18354 "Waveguide Crossing" sch_x=-252 sch_y=-28 sch_r=0 sch_f=false lay_x=0 lay_y=0
   C4719 N$18105 N$18107 N$18356 N$18358 "Waveguide Crossing" sch_x=-252 sch_y=-30 sch_r=0 sch_f=false lay_x=0 lay_y=0
   C4720 N$18109 N$18111 N$18360 N$18362 "Waveguide Crossing" sch_x=-252 sch_y=-32 sch_r=0 sch_f=false lay_x=0 lay_y=0
   C4721 N$18113 N$18115 N$18364 N$18366 "Waveguide Crossing" sch_x=-252 sch_y=-34 sch_r=0 sch_f=false lay_x=0 lay_y=0
   C4722 N$18117 N$18119 N$18368 N$18370 "Waveguide Crossing" sch_x=-252 sch_y=-36 sch_r=0 sch_f=false lay_x=0 lay_y=0
   C4723 N$18121 N$18123 N$18372 N$18374 "Waveguide Crossing" sch_x=-252 sch_y=-38 sch_r=0 sch_f=false lay_x=0 lay_y=0
   C4724 N$18125 N$18127 N$18376 N$18378 "Waveguide Crossing" sch_x=-252 sch_y=-40 sch_r=0 sch_f=false lay_x=0 lay_y=0
   C4725 N$18129 N$18131 N$18380 N$18382 "Waveguide Crossing" sch_x=-252 sch_y=-42 sch_r=0 sch_f=false lay_x=0 lay_y=0
   C4726 N$18133 N$18135 N$18384 N$18386 "Waveguide Crossing" sch_x=-252 sch_y=-44 sch_r=0 sch_f=false lay_x=0 lay_y=0
   C4727 N$18137 N$18139 N$18388 N$18390 "Waveguide Crossing" sch_x=-252 sch_y=-46 sch_r=0 sch_f=false lay_x=0 lay_y=0
   C4728 N$18141 N$18143 N$18392 N$18394 "Waveguide Crossing" sch_x=-252 sch_y=-48 sch_r=0 sch_f=false lay_x=0 lay_y=0
   C4729 N$18145 N$18147 N$18396 N$18398 "Waveguide Crossing" sch_x=-252 sch_y=-50 sch_r=0 sch_f=false lay_x=0 lay_y=0
   C4730 N$18149 N$18151 N$18400 N$18402 "Waveguide Crossing" sch_x=-252 sch_y=-52 sch_r=0 sch_f=false lay_x=0 lay_y=0
   C4731 N$18153 N$18155 N$18404 N$18406 "Waveguide Crossing" sch_x=-252 sch_y=-54 sch_r=0 sch_f=false lay_x=0 lay_y=0
   C4732 N$18157 N$18159 N$18408 N$18410 "Waveguide Crossing" sch_x=-252 sch_y=-56 sch_r=0 sch_f=false lay_x=0 lay_y=0
   C4733 N$18161 N$18163 N$18412 N$18414 "Waveguide Crossing" sch_x=-252 sch_y=-58 sch_r=0 sch_f=false lay_x=0 lay_y=0
   C4734 N$18165 N$18167 N$18416 N$18418 "Waveguide Crossing" sch_x=-252 sch_y=-60 sch_r=0 sch_f=false lay_x=0 lay_y=0
   C4735 N$18169 N$18171 N$18420 N$26235 "Waveguide Crossing" sch_x=-252 sch_y=-62 sch_r=0 sch_f=false lay_x=0 lay_y=0
   C4736 N$18173 N$18175 N$25987 N$18422 "Waveguide Crossing" sch_x=-250 sch_y=61 sch_r=0 sch_f=false lay_x=0 lay_y=0
   C4737 N$18177 N$18179 N$18424 N$18426 "Waveguide Crossing" sch_x=-250 sch_y=59 sch_r=0 sch_f=false lay_x=0 lay_y=0
   C4738 N$18181 N$18183 N$18428 N$18430 "Waveguide Crossing" sch_x=-250 sch_y=57 sch_r=0 sch_f=false lay_x=0 lay_y=0
   C4739 N$18185 N$18187 N$18432 N$18434 "Waveguide Crossing" sch_x=-250 sch_y=55 sch_r=0 sch_f=false lay_x=0 lay_y=0
   C4740 N$18189 N$18191 N$18436 N$18438 "Waveguide Crossing" sch_x=-250 sch_y=53 sch_r=0 sch_f=false lay_x=0 lay_y=0
   C4741 N$18193 N$18195 N$18440 N$18442 "Waveguide Crossing" sch_x=-250 sch_y=51 sch_r=0 sch_f=false lay_x=0 lay_y=0
   C4742 N$18197 N$18199 N$18444 N$18446 "Waveguide Crossing" sch_x=-250 sch_y=49 sch_r=0 sch_f=false lay_x=0 lay_y=0
   C4743 N$18201 N$18203 N$18448 N$18450 "Waveguide Crossing" sch_x=-250 sch_y=47 sch_r=0 sch_f=false lay_x=0 lay_y=0
   C4744 N$18205 N$18207 N$18452 N$18454 "Waveguide Crossing" sch_x=-250 sch_y=45 sch_r=0 sch_f=false lay_x=0 lay_y=0
   C4745 N$18209 N$18211 N$18456 N$18458 "Waveguide Crossing" sch_x=-250 sch_y=43 sch_r=0 sch_f=false lay_x=0 lay_y=0
   C4746 N$18213 N$18215 N$18460 N$18462 "Waveguide Crossing" sch_x=-250 sch_y=41 sch_r=0 sch_f=false lay_x=0 lay_y=0
   C4747 N$18217 N$18219 N$18464 N$18466 "Waveguide Crossing" sch_x=-250 sch_y=39 sch_r=0 sch_f=false lay_x=0 lay_y=0
   C4748 N$18221 N$18223 N$18468 N$18470 "Waveguide Crossing" sch_x=-250 sch_y=37 sch_r=0 sch_f=false lay_x=0 lay_y=0
   C4749 N$18225 N$18227 N$18472 N$18474 "Waveguide Crossing" sch_x=-250 sch_y=35 sch_r=0 sch_f=false lay_x=0 lay_y=0
   C4750 N$18229 N$18231 N$18476 N$18478 "Waveguide Crossing" sch_x=-250 sch_y=33 sch_r=0 sch_f=false lay_x=0 lay_y=0
   C4751 N$18233 N$18235 N$18480 N$18482 "Waveguide Crossing" sch_x=-250 sch_y=31 sch_r=0 sch_f=false lay_x=0 lay_y=0
   C4752 N$18237 N$18239 N$18484 N$18486 "Waveguide Crossing" sch_x=-250 sch_y=29 sch_r=0 sch_f=false lay_x=0 lay_y=0
   C4753 N$18241 N$18243 N$18488 N$18490 "Waveguide Crossing" sch_x=-250 sch_y=27 sch_r=0 sch_f=false lay_x=0 lay_y=0
   C4754 N$18245 N$18247 N$18492 N$18494 "Waveguide Crossing" sch_x=-250 sch_y=25 sch_r=0 sch_f=false lay_x=0 lay_y=0
   C4755 N$18249 N$18251 N$18496 N$18498 "Waveguide Crossing" sch_x=-250 sch_y=23 sch_r=0 sch_f=false lay_x=0 lay_y=0
   C4756 N$18253 N$18255 N$18500 N$18502 "Waveguide Crossing" sch_x=-250 sch_y=21 sch_r=0 sch_f=false lay_x=0 lay_y=0
   C4757 N$18257 N$18259 N$18504 N$18506 "Waveguide Crossing" sch_x=-250 sch_y=19 sch_r=0 sch_f=false lay_x=0 lay_y=0
   C4758 N$18261 N$18263 N$18508 N$18510 "Waveguide Crossing" sch_x=-250 sch_y=17 sch_r=0 sch_f=false lay_x=0 lay_y=0
   C4759 N$18265 N$18267 N$18512 N$18514 "Waveguide Crossing" sch_x=-250 sch_y=15 sch_r=0 sch_f=false lay_x=0 lay_y=0
   C4760 N$18269 N$18271 N$18516 N$18518 "Waveguide Crossing" sch_x=-250 sch_y=13 sch_r=0 sch_f=false lay_x=0 lay_y=0
   C4761 N$18273 N$18275 N$18520 N$18522 "Waveguide Crossing" sch_x=-250 sch_y=11 sch_r=0 sch_f=false lay_x=0 lay_y=0
   C4762 N$18277 N$18279 N$18524 N$18526 "Waveguide Crossing" sch_x=-250 sch_y=9 sch_r=0 sch_f=false lay_x=0 lay_y=0
   C4763 N$18281 N$18283 N$18528 N$18530 "Waveguide Crossing" sch_x=-250 sch_y=7 sch_r=0 sch_f=false lay_x=0 lay_y=0
   C4764 N$18285 N$18287 N$18532 N$18534 "Waveguide Crossing" sch_x=-250 sch_y=5 sch_r=0 sch_f=false lay_x=0 lay_y=0
   C4765 N$18289 N$18291 N$18536 N$18538 "Waveguide Crossing" sch_x=-250 sch_y=3 sch_r=0 sch_f=false lay_x=0 lay_y=0
   C4766 N$18293 N$18295 N$18540 N$18542 "Waveguide Crossing" sch_x=-250 sch_y=1 sch_r=0 sch_f=false lay_x=0 lay_y=0
   C4767 N$18297 N$18299 N$18544 N$18546 "Waveguide Crossing" sch_x=-250 sch_y=-1 sch_r=0 sch_f=false lay_x=0 lay_y=0
   C4768 N$18301 N$18303 N$18548 N$18550 "Waveguide Crossing" sch_x=-250 sch_y=-3 sch_r=0 sch_f=false lay_x=0 lay_y=0
   C4769 N$18305 N$18307 N$18552 N$18554 "Waveguide Crossing" sch_x=-250 sch_y=-5 sch_r=0 sch_f=false lay_x=0 lay_y=0
   C4770 N$18309 N$18311 N$18556 N$18558 "Waveguide Crossing" sch_x=-250 sch_y=-7 sch_r=0 sch_f=false lay_x=0 lay_y=0
   C4771 N$18313 N$18315 N$18560 N$18562 "Waveguide Crossing" sch_x=-250 sch_y=-9 sch_r=0 sch_f=false lay_x=0 lay_y=0
   C4772 N$18317 N$18319 N$18564 N$18566 "Waveguide Crossing" sch_x=-250 sch_y=-11 sch_r=0 sch_f=false lay_x=0 lay_y=0
   C4773 N$18321 N$18323 N$18568 N$18570 "Waveguide Crossing" sch_x=-250 sch_y=-13 sch_r=0 sch_f=false lay_x=0 lay_y=0
   C4774 N$18325 N$18327 N$18572 N$18574 "Waveguide Crossing" sch_x=-250 sch_y=-15 sch_r=0 sch_f=false lay_x=0 lay_y=0
   C4775 N$18329 N$18331 N$18576 N$18578 "Waveguide Crossing" sch_x=-250 sch_y=-17 sch_r=0 sch_f=false lay_x=0 lay_y=0
   C4776 N$18333 N$18335 N$18580 N$18582 "Waveguide Crossing" sch_x=-250 sch_y=-19 sch_r=0 sch_f=false lay_x=0 lay_y=0
   C4777 N$18337 N$18339 N$18584 N$18586 "Waveguide Crossing" sch_x=-250 sch_y=-21 sch_r=0 sch_f=false lay_x=0 lay_y=0
   C4778 N$18341 N$18343 N$18588 N$18590 "Waveguide Crossing" sch_x=-250 sch_y=-23 sch_r=0 sch_f=false lay_x=0 lay_y=0
   C4779 N$18345 N$18347 N$18592 N$18594 "Waveguide Crossing" sch_x=-250 sch_y=-25 sch_r=0 sch_f=false lay_x=0 lay_y=0
   C4780 N$18349 N$18351 N$18596 N$18598 "Waveguide Crossing" sch_x=-250 sch_y=-27 sch_r=0 sch_f=false lay_x=0 lay_y=0
   C4781 N$18353 N$18355 N$18600 N$18602 "Waveguide Crossing" sch_x=-250 sch_y=-29 sch_r=0 sch_f=false lay_x=0 lay_y=0
   C4782 N$18357 N$18359 N$18604 N$18606 "Waveguide Crossing" sch_x=-250 sch_y=-31 sch_r=0 sch_f=false lay_x=0 lay_y=0
   C4783 N$18361 N$18363 N$18608 N$18610 "Waveguide Crossing" sch_x=-250 sch_y=-33 sch_r=0 sch_f=false lay_x=0 lay_y=0
   C4784 N$18365 N$18367 N$18612 N$18614 "Waveguide Crossing" sch_x=-250 sch_y=-35 sch_r=0 sch_f=false lay_x=0 lay_y=0
   C4785 N$18369 N$18371 N$18616 N$18618 "Waveguide Crossing" sch_x=-250 sch_y=-37 sch_r=0 sch_f=false lay_x=0 lay_y=0
   C4786 N$18373 N$18375 N$18620 N$18622 "Waveguide Crossing" sch_x=-250 sch_y=-39 sch_r=0 sch_f=false lay_x=0 lay_y=0
   C4787 N$18377 N$18379 N$18624 N$18626 "Waveguide Crossing" sch_x=-250 sch_y=-41 sch_r=0 sch_f=false lay_x=0 lay_y=0
   C4788 N$18381 N$18383 N$18628 N$18630 "Waveguide Crossing" sch_x=-250 sch_y=-43 sch_r=0 sch_f=false lay_x=0 lay_y=0
   C4789 N$18385 N$18387 N$18632 N$18634 "Waveguide Crossing" sch_x=-250 sch_y=-45 sch_r=0 sch_f=false lay_x=0 lay_y=0
   C4790 N$18389 N$18391 N$18636 N$18638 "Waveguide Crossing" sch_x=-250 sch_y=-47 sch_r=0 sch_f=false lay_x=0 lay_y=0
   C4791 N$18393 N$18395 N$18640 N$18642 "Waveguide Crossing" sch_x=-250 sch_y=-49 sch_r=0 sch_f=false lay_x=0 lay_y=0
   C4792 N$18397 N$18399 N$18644 N$18646 "Waveguide Crossing" sch_x=-250 sch_y=-51 sch_r=0 sch_f=false lay_x=0 lay_y=0
   C4793 N$18401 N$18403 N$18648 N$18650 "Waveguide Crossing" sch_x=-250 sch_y=-53 sch_r=0 sch_f=false lay_x=0 lay_y=0
   C4794 N$18405 N$18407 N$18652 N$18654 "Waveguide Crossing" sch_x=-250 sch_y=-55 sch_r=0 sch_f=false lay_x=0 lay_y=0
   C4795 N$18409 N$18411 N$18656 N$18658 "Waveguide Crossing" sch_x=-250 sch_y=-57 sch_r=0 sch_f=false lay_x=0 lay_y=0
   C4796 N$18413 N$18415 N$18660 N$18662 "Waveguide Crossing" sch_x=-250 sch_y=-59 sch_r=0 sch_f=false lay_x=0 lay_y=0
   C4797 N$18417 N$18419 N$18664 N$26233 "Waveguide Crossing" sch_x=-250 sch_y=-61 sch_r=0 sch_f=false lay_x=0 lay_y=0
   C4798 N$18421 N$18423 N$25989 N$18666 "Waveguide Crossing" sch_x=-248 sch_y=60 sch_r=0 sch_f=false lay_x=0 lay_y=0
   C4799 N$18425 N$18427 N$18668 N$18670 "Waveguide Crossing" sch_x=-248 sch_y=58 sch_r=0 sch_f=false lay_x=0 lay_y=0
   C4800 N$18429 N$18431 N$18672 N$18674 "Waveguide Crossing" sch_x=-248 sch_y=56 sch_r=0 sch_f=false lay_x=0 lay_y=0
   C4801 N$18433 N$18435 N$18676 N$18678 "Waveguide Crossing" sch_x=-248 sch_y=54 sch_r=0 sch_f=false lay_x=0 lay_y=0
   C4802 N$18437 N$18439 N$18680 N$18682 "Waveguide Crossing" sch_x=-248 sch_y=52 sch_r=0 sch_f=false lay_x=0 lay_y=0
   C4803 N$18441 N$18443 N$18684 N$18686 "Waveguide Crossing" sch_x=-248 sch_y=50 sch_r=0 sch_f=false lay_x=0 lay_y=0
   C4804 N$18445 N$18447 N$18688 N$18690 "Waveguide Crossing" sch_x=-248 sch_y=48 sch_r=0 sch_f=false lay_x=0 lay_y=0
   C4805 N$18449 N$18451 N$18692 N$18694 "Waveguide Crossing" sch_x=-248 sch_y=46 sch_r=0 sch_f=false lay_x=0 lay_y=0
   C4806 N$18453 N$18455 N$18696 N$18698 "Waveguide Crossing" sch_x=-248 sch_y=44 sch_r=0 sch_f=false lay_x=0 lay_y=0
   C4807 N$18457 N$18459 N$18700 N$18702 "Waveguide Crossing" sch_x=-248 sch_y=42 sch_r=0 sch_f=false lay_x=0 lay_y=0
   C4808 N$18461 N$18463 N$18704 N$18706 "Waveguide Crossing" sch_x=-248 sch_y=40 sch_r=0 sch_f=false lay_x=0 lay_y=0
   C4809 N$18465 N$18467 N$18708 N$18710 "Waveguide Crossing" sch_x=-248 sch_y=38 sch_r=0 sch_f=false lay_x=0 lay_y=0
   C4810 N$18469 N$18471 N$18712 N$18714 "Waveguide Crossing" sch_x=-248 sch_y=36 sch_r=0 sch_f=false lay_x=0 lay_y=0
   C4811 N$18473 N$18475 N$18716 N$18718 "Waveguide Crossing" sch_x=-248 sch_y=34 sch_r=0 sch_f=false lay_x=0 lay_y=0
   C4812 N$18477 N$18479 N$18720 N$18722 "Waveguide Crossing" sch_x=-248 sch_y=32 sch_r=0 sch_f=false lay_x=0 lay_y=0
   C4813 N$18481 N$18483 N$18724 N$18726 "Waveguide Crossing" sch_x=-248 sch_y=30 sch_r=0 sch_f=false lay_x=0 lay_y=0
   C4814 N$18485 N$18487 N$18728 N$18730 "Waveguide Crossing" sch_x=-248 sch_y=28 sch_r=0 sch_f=false lay_x=0 lay_y=0
   C4815 N$18489 N$18491 N$18732 N$18734 "Waveguide Crossing" sch_x=-248 sch_y=26 sch_r=0 sch_f=false lay_x=0 lay_y=0
   C4816 N$18493 N$18495 N$18736 N$18738 "Waveguide Crossing" sch_x=-248 sch_y=24 sch_r=0 sch_f=false lay_x=0 lay_y=0
   C4817 N$18497 N$18499 N$18740 N$18742 "Waveguide Crossing" sch_x=-248 sch_y=22 sch_r=0 sch_f=false lay_x=0 lay_y=0
   C4818 N$18501 N$18503 N$18744 N$18746 "Waveguide Crossing" sch_x=-248 sch_y=20 sch_r=0 sch_f=false lay_x=0 lay_y=0
   C4819 N$18505 N$18507 N$18748 N$18750 "Waveguide Crossing" sch_x=-248 sch_y=18 sch_r=0 sch_f=false lay_x=0 lay_y=0
   C4820 N$18509 N$18511 N$18752 N$18754 "Waveguide Crossing" sch_x=-248 sch_y=16 sch_r=0 sch_f=false lay_x=0 lay_y=0
   C4821 N$18513 N$18515 N$18756 N$18758 "Waveguide Crossing" sch_x=-248 sch_y=14 sch_r=0 sch_f=false lay_x=0 lay_y=0
   C4822 N$18517 N$18519 N$18760 N$18762 "Waveguide Crossing" sch_x=-248 sch_y=12 sch_r=0 sch_f=false lay_x=0 lay_y=0
   C4823 N$18521 N$18523 N$18764 N$18766 "Waveguide Crossing" sch_x=-248 sch_y=10 sch_r=0 sch_f=false lay_x=0 lay_y=0
   C4824 N$18525 N$18527 N$18768 N$18770 "Waveguide Crossing" sch_x=-248 sch_y=8 sch_r=0 sch_f=false lay_x=0 lay_y=0
   C4825 N$18529 N$18531 N$18772 N$18774 "Waveguide Crossing" sch_x=-248 sch_y=6 sch_r=0 sch_f=false lay_x=0 lay_y=0
   C4826 N$18533 N$18535 N$18776 N$18778 "Waveguide Crossing" sch_x=-248 sch_y=4 sch_r=0 sch_f=false lay_x=0 lay_y=0
   C4827 N$18537 N$18539 N$18780 N$18782 "Waveguide Crossing" sch_x=-248 sch_y=2 sch_r=0 sch_f=false lay_x=0 lay_y=0
   C4828 N$18541 N$18543 N$18784 N$18786 "Waveguide Crossing" sch_x=-248 sch_y=0 sch_r=0 sch_f=false lay_x=0 lay_y=0
   C4829 N$18545 N$18547 N$18788 N$18790 "Waveguide Crossing" sch_x=-248 sch_y=-2 sch_r=0 sch_f=false lay_x=0 lay_y=0